BasicForce
BasicTorque
BasicWorldForce
BasicWorldTorque
standardGravityAcceleration
standardBuoyantAcceleration
standardVIscousDrag
standardHydroDynamicDrag
